data_image0
_cell_length_a       7.89026
_cell_length_b       7.89026
_cell_length_c       43.3964
_cell_angle_alpha    90
_cell_angle_beta     90
_cell_angle_gamma    90

_symmetry_space_group_name_H-M    "P 1"
_symmetry_int_tables_number       1

loop_
  _symmetry_equiv_pos_as_xyz
  'x, y, z'

loop_
  _atom_site_label
  _atom_site_occupancy
  _atom_site_fract_x
  _atom_site_fract_y
  _atom_site_fract_z
  _atom_site_thermal_displace_type
  _atom_site_B_iso_or_equiv
  _atom_site_type_symbol
  Sr1      1.0000 0.00000  0.00000  0.25455  Biso   1.000  Sr
  O1       1.0000 0.75000  0.75000  0.25455  Biso   1.000  O
  Sr2      1.0000 0.00000  0.50000  0.25455  Biso   1.000  Sr
  O2       1.0000 0.75000  0.25000  0.25455  Biso   1.000  O
  Sr3      1.0000 0.50000  0.00000  0.25455  Biso   1.000  Sr
  O3       1.0000 0.25000  0.75000  0.25455  Biso   1.000  O
  Sr4      1.0000 0.50000  0.50000  0.25455  Biso   1.000  Sr
  O4       1.0000 0.25000  0.25000  0.25455  Biso   1.000  O
  Sr5      1.0000 0.00000  0.00000  0.34545  Biso   1.000  Sr
  Ti1      1.0000 0.75000  0.75000  0.30000  Biso   1.000  Ti
  O5       1.0000 0.75000  0.75000  0.34545  Biso   1.000  O
  O6       1.0000 0.75000  0.00000  0.30000  Biso   1.000  O
  O7       1.0000 0.00000  0.75000  0.30000  Biso   1.000  O
  Sr6      1.0000 0.00000  0.50000  0.34545  Biso   1.000  Sr
  Ti2      1.0000 0.75000  0.25000  0.30000  Biso   1.000  Ti
  O8       1.0000 0.75000  0.25000  0.34545  Biso   1.000  O
  O9       1.0000 0.75000  0.50000  0.30000  Biso   1.000  O
  O10      1.0000 0.00000  0.25000  0.30000  Biso   1.000  O
  Sr7      1.0000 0.50000  0.00000  0.34545  Biso   1.000  Sr
  Ti3      1.0000 0.25000  0.75000  0.30000  Biso   1.000  Ti
  O11      1.0000 0.25000  0.75000  0.34545  Biso   1.000  O
  O12      1.0000 0.25000  0.00000  0.30000  Biso   1.000  O
  O13      1.0000 0.50000  0.75000  0.30000  Biso   1.000  O
  Sr8      1.0000 0.50000  0.50000  0.34545  Biso   1.000  Sr
  Ti4      1.0000 0.25000  0.25000  0.30000  Biso   1.000  Ti
  O14      1.0000 0.25000  0.25000  0.34545  Biso   1.000  O
  O15      1.0000 0.25000  0.50000  0.30000  Biso   1.000  O
  O16      1.0000 0.50000  0.25000  0.30000  Biso   1.000  O
  Sr9      1.0000 0.00000  0.00000  0.43636  Biso   1.000  Sr
  Ti5      1.0000 0.75000  0.75000  0.39091  Biso   1.000  Ti
  O17      1.0000 0.75000  0.75000  0.43636  Biso   1.000  O
  O18      1.0000 0.75000  0.00000  0.39091  Biso   1.000  O
  O19      1.0000 0.00000  0.75000  0.39091  Biso   1.000  O
  Sr10     1.0000 0.00000  0.50000  0.43636  Biso   1.000  Sr
  Ti6      1.0000 0.75000  0.25000  0.39091  Biso   1.000  Ti
  O20      1.0000 0.75000  0.25000  0.43636  Biso   1.000  O
  O21      1.0000 0.75000  0.50000  0.39091  Biso   1.000  O
  O22      1.0000 0.00000  0.25000  0.39091  Biso   1.000  O
  Sr11     1.0000 0.50000  0.00000  0.43636  Biso   1.000  Sr
  Ti7      1.0000 0.25000  0.75000  0.39091  Biso   1.000  Ti
  O23      1.0000 0.25000  0.75000  0.43636  Biso   1.000  O
  O24      1.0000 0.25000  0.00000  0.39091  Biso   1.000  O
  O25      1.0000 0.50000  0.75000  0.39091  Biso   1.000  O
  Sr12     1.0000 0.50000  0.50000  0.43636  Biso   1.000  Sr
  Ti8      1.0000 0.25000  0.25000  0.39091  Biso   1.000  Ti
  O26      1.0000 0.25000  0.25000  0.43636  Biso   1.000  O
  O27      1.0000 0.25000  0.50000  0.39091  Biso   1.000  O
  O28      1.0000 0.50000  0.25000  0.39091  Biso   1.000  O
  Sr13     1.0000 0.00000  0.00000  0.52727  Biso   1.000  Sr
  Ti9      1.0000 0.75000  0.75000  0.48182  Biso   1.000  Ti
  O29      1.0000 0.75000  0.75000  0.52727  Biso   1.000  O
  O30      1.0000 0.75000  0.00000  0.48182  Biso   1.000  O
  O31      1.0000 0.00000  0.75000  0.48182  Biso   1.000  O
  Sr14     1.0000 0.00000  0.50000  0.52727  Biso   1.000  Sr
  Ti10     1.0000 0.75000  0.25000  0.48182  Biso   1.000  Ti
  O32      1.0000 0.75000  0.25000  0.52727  Biso   1.000  O
  O33      1.0000 0.75000  0.50000  0.48182  Biso   1.000  O
  O34      1.0000 0.00000  0.25000  0.48182  Biso   1.000  O
  Sr15     1.0000 0.50000  0.00000  0.52727  Biso   1.000  Sr
  Ti11     1.0000 0.25000  0.75000  0.48182  Biso   1.000  Ti
  O35      1.0000 0.25000  0.75000  0.52727  Biso   1.000  O
  O36      1.0000 0.25000  0.00000  0.48182  Biso   1.000  O
  O37      1.0000 0.50000  0.75000  0.48182  Biso   1.000  O
  Sr16     1.0000 0.50000  0.50000  0.52727  Biso   1.000  Sr
  Ti12     1.0000 0.25000  0.25000  0.48182  Biso   1.000  Ti
  O38      1.0000 0.25000  0.25000  0.52727  Biso   1.000  O
  O39      1.0000 0.25000  0.50000  0.48182  Biso   1.000  O
  O40      1.0000 0.50000  0.25000  0.48182  Biso   1.000  O
  Sr17     1.0000 0.00000  0.00000  0.61818  Biso   1.000  Sr
  Ti13     1.0000 0.75000  0.75000  0.57273  Biso   1.000  Ti
  O41      1.0000 0.75000  0.75000  0.61818  Biso   1.000  O
  O42      1.0000 0.75000  0.00000  0.57273  Biso   1.000  O
  O43      1.0000 0.00000  0.75000  0.57273  Biso   1.000  O
  Sr18     1.0000 0.00000  0.50000  0.61818  Biso   1.000  Sr
  Ti14     1.0000 0.75000  0.25000  0.57273  Biso   1.000  Ti
  O44      1.0000 0.75000  0.25000  0.61818  Biso   1.000  O
  O45      1.0000 0.75000  0.50000  0.57273  Biso   1.000  O
  O46      1.0000 0.00000  0.25000  0.57273  Biso   1.000  O
  Sr19     1.0000 0.50000  0.00000  0.61818  Biso   1.000  Sr
  Ti15     1.0000 0.25000  0.75000  0.57273  Biso   1.000  Ti
  O47      1.0000 0.25000  0.75000  0.61818  Biso   1.000  O
  O48      1.0000 0.25000  0.00000  0.57273  Biso   1.000  O
  O49      1.0000 0.50000  0.75000  0.57273  Biso   1.000  O
  Sr20     1.0000 0.50000  0.50000  0.61818  Biso   1.000  Sr
  Ti16     1.0000 0.25000  0.25000  0.57273  Biso   1.000  Ti
  O50      1.0000 0.25000  0.25000  0.61818  Biso   1.000  O
  O51      1.0000 0.25000  0.50000  0.57273  Biso   1.000  O
  O52      1.0000 0.50000  0.25000  0.57273  Biso   1.000  O
  Sr21     1.0000 0.00000  0.00000  0.70909  Biso   1.000  Sr
  Ti17     1.0000 0.75000  0.75000  0.66364  Biso   1.000  Ti
  O53      1.0000 0.75000  0.75000  0.70909  Biso   1.000  O
  O54      1.0000 0.75000  0.00000  0.66364  Biso   1.000  O
  O55      1.0000 0.00000  0.75000  0.66364  Biso   1.000  O
  Sr22     1.0000 0.00000  0.50000  0.70909  Biso   1.000  Sr
  Ti18     1.0000 0.75000  0.25000  0.66364  Biso   1.000  Ti
  O56      1.0000 0.75000  0.25000  0.70909  Biso   1.000  O
  O57      1.0000 0.75000  0.50000  0.66364  Biso   1.000  O
  O58      1.0000 0.00000  0.25000  0.66364  Biso   1.000  O
  Sr23     1.0000 0.50000  0.00000  0.70909  Biso   1.000  Sr
  Ti19     1.0000 0.25000  0.75000  0.66364  Biso   1.000  Ti
  O59      1.0000 0.25000  0.75000  0.70909  Biso   1.000  O
  O60      1.0000 0.25000  0.00000  0.66364  Biso   1.000  O
  O61      1.0000 0.50000  0.75000  0.66364  Biso   1.000  O
  Sr24     1.0000 0.50000  0.50000  0.70909  Biso   1.000  Sr
  Ti20     1.0000 0.25000  0.25000  0.66364  Biso   1.000  Ti
  O62      1.0000 0.25000  0.25000  0.70909  Biso   1.000  O
  O63      1.0000 0.25000  0.50000  0.66364  Biso   1.000  O
  O64      1.0000 0.50000  0.25000  0.66364  Biso   1.000  O
  Sr25     1.0000 0.00000  0.00000  0.80000  Biso   1.000  Sr
  Ti21     1.0000 0.75000  0.75000  0.75455  Biso   1.000  Ti
  O65      1.0000 0.75000  0.75000  0.80000  Biso   1.000  O
  O66      1.0000 0.75000  0.00000  0.75455  Biso   1.000  O
  O67      1.0000 0.00000  0.75000  0.75455  Biso   1.000  O
  Sr26     1.0000 0.00000  0.50000  0.80000  Biso   1.000  Sr
  Ti22     1.0000 0.75000  0.25000  0.75455  Biso   1.000  Ti
  O68      1.0000 0.75000  0.25000  0.80000  Biso   1.000  O
  O69      1.0000 0.75000  0.50000  0.75455  Biso   1.000  O
  O70      1.0000 0.00000  0.25000  0.75455  Biso   1.000  O
  Sr27     1.0000 0.50000  0.00000  0.80000  Biso   1.000  Sr
  Ti23     1.0000 0.25000  0.75000  0.75455  Biso   1.000  Ti
  O71      1.0000 0.25000  0.75000  0.80000  Biso   1.000  O
  O72      1.0000 0.25000  0.00000  0.75455  Biso   1.000  O
  O73      1.0000 0.50000  0.75000  0.75455  Biso   1.000  O
  Sr28     1.0000 0.50000  0.50000  0.80000  Biso   1.000  Sr
  Ti24     1.0000 0.25000  0.25000  0.75455  Biso   1.000  Ti
  O74      1.0000 0.25000  0.25000  0.80000  Biso   1.000  O
  O75      1.0000 0.25000  0.50000  0.75455  Biso   1.000  O
  O76      1.0000 0.50000  0.25000  0.75455  Biso   1.000  O
