data_image0
_cell_length_a       3.94513
_cell_length_b       3.94513
_cell_length_c       43.3964
_cell_angle_alpha    90
_cell_angle_beta     90
_cell_angle_gamma    90

_symmetry_space_group_name_H-M    "P 1"
_symmetry_int_tables_number       1

loop_
  _symmetry_equiv_pos_as_xyz
  'x, y, z'

loop_
  _atom_site_label
  _atom_site_occupancy
  _atom_site_fract_x
  _atom_site_fract_y
  _atom_site_fract_z
  _atom_site_thermal_displace_type
  _atom_site_B_iso_or_equiv
  _atom_site_type_symbol
  Sr1      1.0000 0.00000  0.00000  0.25455  Biso   1.000  Sr
  O1       1.0000 0.50000  0.50000  0.25455  Biso   1.000  O
  Sr2      1.0000 0.00000  0.00000  0.34546  Biso   1.000  Sr
  Ti1      1.0000 0.50000  0.50000  0.30000  Biso   1.000  Ti
  O2       1.0000 0.50000  0.50000  0.34546  Biso   1.000  O
  O3       1.0000 0.50000  0.00000  0.30000  Biso   1.000  O
  O4       1.0000 0.00000  0.50000  0.30000  Biso   1.000  O
  Sr3      1.0000 0.00000  0.00000  0.43636  Biso   1.000  Sr
  Ti2      1.0000 0.50000  0.50000  0.39091  Biso   1.000  Ti
  O5       1.0000 0.50000  0.50000  0.43636  Biso   1.000  O
  O6       1.0000 0.50000  0.00000  0.39091  Biso   1.000  O
  O7       1.0000 0.00000  0.50000  0.39091  Biso   1.000  O
  Sr4      1.0000 0.00000  0.00000  0.52727  Biso   1.000  Sr
  Ti3      1.0000 0.50000  0.50000  0.48182  Biso   1.000  Ti
  O8       1.0000 0.50000  0.50000  0.52727  Biso   1.000  O
  O9       1.0000 0.50000  0.00000  0.48182  Biso   1.000  O
  O10      1.0000 0.00000  0.50000  0.48182  Biso   1.000  O
  Sr5      1.0000 0.00000  0.00000  0.61818  Biso   1.000  Sr
  Ti4      1.0000 0.50000  0.50000  0.57273  Biso   1.000  Ti
  O11      1.0000 0.50000  0.50000  0.61818  Biso   1.000  O
  O12      1.0000 0.50000  0.00000  0.57273  Biso   1.000  O
  O13      1.0000 0.00000  0.50000  0.57273  Biso   1.000  O
  Sr6      1.0000 0.00000  0.00000  0.70909  Biso   1.000  Sr
  Ti5      1.0000 0.50000  0.50000  0.66364  Biso   1.000  Ti
  O14      1.0000 0.50000  0.50000  0.70909  Biso   1.000  O
  O15      1.0000 0.50000  0.00000  0.66364  Biso   1.000  O
  O16      1.0000 0.00000  0.50000  0.66364  Biso   1.000  O
  Sr7      1.0000 0.00000  0.00000  0.80000  Biso   1.000  Sr
  Ti6      1.0000 0.50000  0.50000  0.75454  Biso   1.000  Ti
  O17      1.0000 0.50000  0.50000  0.80000  Biso   1.000  O
  O18      1.0000 0.50000  0.00000  0.75454  Biso   1.000  O
  O19      1.0000 0.00000  0.50000  0.75454  Biso   1.000  O
  O20      1.0000 0.00000  0.00000  0.21478  Biso   1.000  O
  H1       1.0000 0.00000  0.00000  0.19222  Biso   1.000  H
