# generated using pymatgen
data_Sr6Ti7O20
_symmetry_space_group_name_H-M   'P 1'
_cell_length_a   3.94513011
_cell_length_b   3.94513011
_cell_length_c   43.39643121
_cell_angle_alpha   90.00000000
_cell_angle_beta   90.00000000
_cell_angle_gamma   90.00000000
_symmetry_Int_Tables_number   1
_chemical_formula_structural   Sr6Ti7O20
_chemical_formula_sum   'Sr6 Ti7 O20'
_cell_volume   675.42429385
_cell_formula_units_Z   1
loop_
 _symmetry_equiv_pos_site_id
 _symmetry_equiv_pos_as_xyz
  1  'x, y, z'
loop_
 _atom_site_type_symbol
 _atom_site_label
 _atom_site_symmetry_multiplicity
 _atom_site_fract_x
 _atom_site_fract_y
 _atom_site_fract_z
 _atom_site_occupancy
  Sr  Sr1  1  0.000000  0.000000  0.254545  1
  Ti  Ti2  1  0.500000  0.500000  0.209091  1
  O  O3  1  0.500000  0.500000  0.254545  1
  O  O4  1  0.500000  0.000000  0.209091  1
  O  O5  1  0.000000  0.500000  0.209091  1
  Sr  Sr6  1  0.000000  0.000000  0.345455  1
  Ti  Ti7  1  0.500000  0.500000  0.300000  1
  O  O8  1  0.500000  0.500000  0.345455  1
  O  O9  1  0.500000  0.000000  0.300000  1
  O  O10  1  0.000000  0.500000  0.300000  1
  Sr  Sr11  1  0.000000  0.000000  0.436364  1
  Ti  Ti12  1  0.500000  0.500000  0.390909  1
  O  O13  1  0.500000  0.500000  0.436364  1
  O  O14  1  0.500000  0.000000  0.390909  1
  O  O15  1  0.000000  0.500000  0.390909  1
  Sr  Sr16  1  0.000000  0.000000  0.527273  1
  Ti  Ti17  1  0.500000  0.500000  0.481818  1
  O  O18  1  0.500000  0.500000  0.527273  1
  O  O19  1  0.500000  0.000000  0.481818  1
  O  O20  1  0.000000  0.500000  0.481818  1
  Sr  Sr21  1  0.000000  0.000000  0.618182  1
  Ti  Ti22  1  0.500000  0.500000  0.572727  1
  O  O23  1  0.500000  0.500000  0.618182  1
  O  O24  1  0.500000  0.000000  0.572727  1
  O  O25  1  0.000000  0.500000  0.572727  1
  Sr  Sr26  1  0.000000  0.000000  0.709091  1
  Ti  Ti27  1  0.500000  0.500000  0.663636  1
  O  O28  1  0.500000  0.500000  0.709091  1
  O  O29  1  0.500000  0.000000  0.663636  1
  O  O30  1  0.000000  0.500000  0.663636  1
  Ti  Ti31  1  0.500000  0.500000  0.754545  1
  O  O32  1  0.500000  0.000000  0.754545  1
  O  O33  1  0.000000  0.500000  0.754545  1
