 INFO
nunit      1    1    1
unit   cell
celltype   convcell
shape   parapipedal
 END_INFO
 DIM-GROUP
           3           1
 PRIMVEC
    5.1722151080    0.0000000000    0.0000000000
    0.0000000000    5.1722151080    0.0000000000
    0.0000000000    0.0000000000   58.8519262230
 CONVVEC
    5.1722151080    0.0000000000    0.0000000000
    0.0000000000    5.1722151080    0.0000000000
    0.0000000000    0.0000000000   58.8519262230
 PRIMCOORD
          72           1
 83      0.0000000000     1.2930537770    19.1738576330
 83      0.0000000000     3.8791613310    16.0969410990
 83      2.5861075540     3.8791613310    13.3737459450
 83      2.5861075540     1.2930537770    22.0514903040
 23      0.0000000000     1.2930537770    13.2983286150
 23      0.0000000000     3.8791613310    22.0550949260
 23      2.5861075540     3.8791613310    19.1690969830
 23      2.5861075540     1.2930537770    16.1062730130
  8      0.8304873370     2.6239312340    14.2157080270
  8      4.4406055400     2.5798684920    21.1386240700
  8      1.8439697250     2.5688633420    20.0776274780
  8      3.3514782190     2.6248404470    15.2095319710
  8      1.3362067470     1.9724990580    17.0503277670
  8      3.8524836870     3.1743616290    18.2417354010
  8      1.2764885170     3.1690353760    22.9806892430
  8      4.0139923570     2.0646128320    12.3643469560
  8      3.3282453840     5.1894593200    20.0776274780
  8      1.8207368900    -0.0387328930    15.2095319710
  8      4.3417277710    -0.0378236800    14.2157080270
  8      0.7316095690     5.1784541710    21.1386240700
  8      3.8957317640     4.5892872870    22.9806892430
  8      1.1582175790     0.5214947230    12.3643469560
  8      3.8360135340     0.6136033240    17.0503277670
  8      1.3197262490     4.5839662050    18.2417354010
 83      0.0000000000     1.2930537770    30.9052969090
 83      0.0000000000     3.8791613310    27.9466293140
 83      2.5861075540     3.8791613310    25.0300692120
 83      2.5861075540     1.2930537770    33.8218570100
 23      0.0000000000     1.2930537770    25.0276800010
 23      0.0000000000     3.8791613310    33.8242462220
 23      2.5861075540     3.8791613310    30.9007414170
 23      2.5861075540     1.2930537770    27.9511848060
  8      0.7292891780     2.5881248270    25.9433734820
  8      4.4429259300     2.5840902820    32.9085527410
  8      1.8579170320     2.5891748740    31.8206273910
  8      3.3142980770     2.5830402340    27.0312988310
  8      1.3049218900     2.0146726530    28.8732966190
  8      3.8672932180     3.1575424550    29.9786296040
  8      1.2805516490     3.1622558120    34.7465586020
  8      3.8916634600     2.0099592970    24.1053676200
  8      3.3142980770     5.1691477880    31.8206273910
  8      1.8579170320     0.0030673200    27.0312988310
  8      4.4429259300    -0.0020172720    25.9433734820
  8      0.7292891780     5.1742323810    32.9085527410
  8      3.8916686320     4.5960668510    34.7465586020
  8      1.2805464770     0.5761482580    24.1053676200
  8      3.8672983900     0.5714297280    28.8732966190
  8      1.3049167180     4.6007853800    29.9786296040
 83      0.0000000000     1.2930537770    42.7549851240
 83      0.0000000000     3.8791613310    39.6780685900
 83      2.5861075540     3.8791613310    36.8004359190
 83      2.5861075540     1.2930537770    45.4781802770
 23      0.0000000000     1.2930537770    36.7968312970
 23      0.0000000000     3.8791613310    45.5535976080
 23      2.5861075540     3.8791613310    42.7456532090
 23      2.5861075540     1.2930537770    39.6828292400
  8      0.7316095690     2.5923466160    37.7133021530
  8      4.3417277710     2.5482838740    44.6362181960
  8      1.8207368900     2.5473746610    43.6423942520
  8      3.3282453840     2.6033517660    38.7742987450
  8      1.3197314210     1.9978534790    40.6101908210
  8      3.8360083610     3.1997160500    41.8015984560
  8      1.1582227510     3.1076022770    46.4875792660
  8      3.8957265920     2.0031797330    35.8712369800
  8      3.3514782190     5.2109480020    43.6423942520
  8      1.8439697250    -0.0172442120    38.7742987450
  8      4.4406055400    -0.0062390620    37.7133021530
  8      0.8304873370     5.2100387880    44.6362181960
  8      4.0139975290     4.6507203860    46.4875792660
  8      1.2764833450     0.5829278210    35.8712369800
  8      3.8524888590     0.5882489030    40.6101908210
  8      1.3362015750     4.5586117850    41.8015984560
 CONVCOORD
          72           1
 83      0.0000000000     1.2930537770    19.1738576330
 83      0.0000000000     3.8791613310    16.0969410990
 83      2.5861075540     3.8791613310    13.3737459450
 83      2.5861075540     1.2930537770    22.0514903040
 23      0.0000000000     1.2930537770    13.2983286150
 23      0.0000000000     3.8791613310    22.0550949260
 23      2.5861075540     3.8791613310    19.1690969830
 23      2.5861075540     1.2930537770    16.1062730130
  8      0.8304873370     2.6239312340    14.2157080270
  8      4.4406055400     2.5798684920    21.1386240700
  8      1.8439697250     2.5688633420    20.0776274780
  8      3.3514782190     2.6248404470    15.2095319710
  8      1.3362067470     1.9724990580    17.0503277670
  8      3.8524836870     3.1743616290    18.2417354010
  8      1.2764885170     3.1690353760    22.9806892430
  8      4.0139923570     2.0646128320    12.3643469560
  8      3.3282453840     0.0172442120    20.0776274780
  8      1.8207368900    -0.0387328930    15.2095319710
  8      4.3417277710    -0.0378236800    14.2157080270
  8      0.7316095690     0.0062390630    21.1386240700
  8      3.8957317640     4.5892872870    22.9806892430
  8      1.1582175790     0.5214947230    12.3643469560
  8      3.8360135340     0.6136033240    17.0503277670
  8      1.3197262490     4.5839662050    18.2417354010
 83      0.0000000000     1.2930537770    30.9052969090
 83      0.0000000000     3.8791613310    27.9466293140
 83      2.5861075540     3.8791613310    25.0300692120
 83      2.5861075540     1.2930537770    33.8218570100
 23      0.0000000000     1.2930537770    25.0276800010
 23      0.0000000000     3.8791613310    33.8242462220
 23      2.5861075540     3.8791613310    30.9007414170
 23      2.5861075540     1.2930537770    27.9511848060
  8      0.7292891780     2.5881248270    25.9433734820
  8      4.4429259300     2.5840902820    32.9085527410
  8      1.8579170320     2.5891748740    31.8206273910
  8      3.3142980770     2.5830402340    27.0312988310
  8      1.3049218900     2.0146726530    28.8732966190
  8      3.8672932180     3.1575424550    29.9786296040
  8      1.2805516490     3.1622558120    34.7465586020
  8      3.8916634600     2.0099592970    24.1053676200
  8      3.3142980770     5.1691477880    31.8206273910
  8      1.8579170320     0.0030673200    27.0312988310
  8      4.4429259300    -0.0020172720    25.9433734820
  8      0.7292891780     0.0020172730    32.9085527410
  8      3.8916686320     4.5960668510    34.7465586020
  8      1.2805464770     0.5761482580    24.1053676200
  8      3.8672983900     0.5714297280    28.8732966190
  8      1.3049167180     4.6007853800    29.9786296040
 83      0.0000000000     1.2930537770    42.7549851240
 83      0.0000000000     3.8791613310    39.6780685900
 83      2.5861075540     3.8791613310    36.8004359190
 83      2.5861075540     1.2930537770    45.4781802770
 23      0.0000000000     1.2930537770    36.7968312970
 23      0.0000000000     3.8791613310    45.5535976080
 23      2.5861075540     3.8791613310    42.7456532090
 23      2.5861075540     1.2930537770    39.6828292400
  8      0.7316095690     2.5923466160    37.7133021530
  8      4.3417277710     2.5482838740    44.6362181960
  8      1.8207368900     2.5473746610    43.6423942520
  8      3.3282453840     2.6033517660    38.7742987450
  8      1.3197314210     1.9978534790    40.6101908210
  8      3.8360083610     3.1997160500    41.8015984560
  8      1.1582227510     3.1076022770    46.4875792660
  8      3.8957265920     2.0031797330    35.8712369800
  8      3.3514782190     0.0387328940    43.6423942520
  8      1.8439697250    -0.0172442120    38.7742987450
  8      4.4406055400    -0.0062390620    37.7133021530
  8      0.8304873370     0.0378236800    44.6362181960
  8      4.0139975290     4.6507203860    46.4875792660
  8      1.2764833450     0.5829278210    35.8712369800
  8      3.8524888590     0.5882489030    40.6101908210
  8      1.3362015750     4.5586117850    41.8015984560
 RECIP-PRIMVEC
    0.1933407600    0.0000000000    0.0000000000

    0.0000000000    0.1933407600    0.0000000000

    0.0000000000    0.0000000000    0.0169917973

 RECIP-CONVVEC
    0.1933407600    0.0000000000    0.0000000000

    0.0000000000    0.1933407600    0.0000000000

    0.0000000000    0.0000000000    0.0169917973

 WIGNER-SEITZ-PRIMCELL
           4
 -0.2586108E+01 -0.2586108E+01  0.2942596E+02  -0.1000000E+01  0.0000000E+00  0.0000000E+00
 -0.2586108E+01  0.2586108E+01  0.2942596E+02  -0.1000000E+01  0.0000000E+00  0.0000000E+00
 -0.2586108E+01  0.2586108E+01 -0.2942596E+02  -0.1000000E+01  0.0000000E+00  0.0000000E+00
 -0.2586108E+01 -0.2586108E+01 -0.2942596E+02  -0.1000000E+01  0.0000000E+00  0.0000000E+00
           4
 -0.2586108E+01 -0.2586108E+01 -0.2942596E+02  -0.0000000E+00 -0.1000000E+01 -0.0000000E+00
  0.2586108E+01 -0.2586108E+01 -0.2942596E+02  -0.0000000E+00 -0.1000000E+01 -0.0000000E+00
  0.2586108E+01 -0.2586108E+01  0.2942596E+02  -0.0000000E+00 -0.1000000E+01 -0.0000000E+00
 -0.2586108E+01 -0.2586108E+01  0.2942596E+02  -0.0000000E+00 -0.1000000E+01 -0.0000000E+00
           4
 -0.2586108E+01  0.2586108E+01 -0.2942596E+02  -0.1062422E-14  0.1062422E-14 -0.1000000E+01
  0.2586108E+01  0.2586108E+01 -0.2942596E+02  -0.1062422E-14  0.1062422E-14 -0.1000000E+01
  0.2586108E+01 -0.2586108E+01 -0.2942596E+02  -0.1062422E-14  0.1062422E-14 -0.1000000E+01
 -0.2586108E+01 -0.2586108E+01 -0.2942596E+02  -0.1062422E-14  0.1062422E-14 -0.1000000E+01
           4
  0.2586108E+01 -0.2586108E+01  0.2942596E+02   0.2238485E-14  0.2124844E-14  0.1000000E+01
  0.2586108E+01  0.2586108E+01  0.2942596E+02   0.2238485E-14  0.2124844E-14  0.1000000E+01
 -0.2586108E+01  0.2586108E+01  0.2942596E+02   0.2238485E-14  0.2124844E-14  0.1000000E+01
 -0.2586108E+01 -0.2586108E+01  0.2942596E+02   0.2238485E-14  0.2124844E-14  0.1000000E+01
           4
 -0.2586108E+01  0.2586108E+01  0.2942596E+02   0.0000000E+00  0.1000000E+01  0.0000000E+00
  0.2586108E+01  0.2586108E+01  0.2942596E+02   0.0000000E+00  0.1000000E+01  0.0000000E+00
  0.2586108E+01  0.2586108E+01 -0.2942596E+02   0.0000000E+00  0.1000000E+01  0.0000000E+00
 -0.2586108E+01  0.2586108E+01 -0.2942596E+02   0.0000000E+00  0.1000000E+01  0.0000000E+00
           4
  0.2586108E+01 -0.2586108E+01  0.2942596E+02   0.1000000E+01 -0.0000000E+00 -0.0000000E+00
  0.2586108E+01 -0.2586108E+01 -0.2942596E+02   0.1000000E+01 -0.0000000E+00 -0.0000000E+00
  0.2586108E+01  0.2586108E+01 -0.2942596E+02   0.1000000E+01 -0.0000000E+00 -0.0000000E+00
  0.2586108E+01  0.2586108E+01  0.2942596E+02   0.1000000E+01 -0.0000000E+00 -0.0000000E+00
 WIGNER-SEITZ-PRIMCELL_END
 WIGNER-SEITZ-CONVCELL
           4
 -0.2586108E+01 -0.2586108E+01  0.2942596E+02  -0.1000000E+01  0.0000000E+00  0.0000000E+00
 -0.2586108E+01  0.2586108E+01  0.2942596E+02  -0.1000000E+01  0.0000000E+00  0.0000000E+00
 -0.2586108E+01  0.2586108E+01 -0.2942596E+02  -0.1000000E+01  0.0000000E+00  0.0000000E+00
 -0.2586108E+01 -0.2586108E+01 -0.2942596E+02  -0.1000000E+01  0.0000000E+00  0.0000000E+00
           4
 -0.2586108E+01 -0.2586108E+01 -0.2942596E+02  -0.0000000E+00 -0.1000000E+01 -0.0000000E+00
  0.2586108E+01 -0.2586108E+01 -0.2942596E+02  -0.0000000E+00 -0.1000000E+01 -0.0000000E+00
  0.2586108E+01 -0.2586108E+01  0.2942596E+02  -0.0000000E+00 -0.1000000E+01 -0.0000000E+00
 -0.2586108E+01 -0.2586108E+01  0.2942596E+02  -0.0000000E+00 -0.1000000E+01 -0.0000000E+00
           4
 -0.2586108E+01  0.2586108E+01 -0.2942596E+02  -0.1062422E-14  0.1062422E-14 -0.1000000E+01
  0.2586108E+01  0.2586108E+01 -0.2942596E+02  -0.1062422E-14  0.1062422E-14 -0.1000000E+01
  0.2586108E+01 -0.2586108E+01 -0.2942596E+02  -0.1062422E-14  0.1062422E-14 -0.1000000E+01
 -0.2586108E+01 -0.2586108E+01 -0.2942596E+02  -0.1062422E-14  0.1062422E-14 -0.1000000E+01
           4
  0.2586108E+01 -0.2586108E+01  0.2942596E+02   0.2238485E-14  0.2124844E-14  0.1000000E+01
  0.2586108E+01  0.2586108E+01  0.2942596E+02   0.2238485E-14  0.2124844E-14  0.1000000E+01
 -0.2586108E+01  0.2586108E+01  0.2942596E+02   0.2238485E-14  0.2124844E-14  0.1000000E+01
 -0.2586108E+01 -0.2586108E+01  0.2942596E+02   0.2238485E-14  0.2124844E-14  0.1000000E+01
           4
 -0.2586108E+01  0.2586108E+01  0.2942596E+02   0.0000000E+00  0.1000000E+01  0.0000000E+00
  0.2586108E+01  0.2586108E+01  0.2942596E+02   0.0000000E+00  0.1000000E+01  0.0000000E+00
  0.2586108E+01  0.2586108E+01 -0.2942596E+02   0.0000000E+00  0.1000000E+01  0.0000000E+00
 -0.2586108E+01  0.2586108E+01 -0.2942596E+02   0.0000000E+00  0.1000000E+01  0.0000000E+00
           4
  0.2586108E+01 -0.2586108E+01  0.2942596E+02   0.1000000E+01 -0.0000000E+00 -0.0000000E+00
  0.2586108E+01 -0.2586108E+01 -0.2942596E+02   0.1000000E+01 -0.0000000E+00 -0.0000000E+00
  0.2586108E+01  0.2586108E+01 -0.2942596E+02   0.1000000E+01 -0.0000000E+00 -0.0000000E+00
  0.2586108E+01  0.2586108E+01  0.2942596E+02   0.1000000E+01 -0.0000000E+00 -0.0000000E+00
 WIGNER-SEITZ-CONVCELL_END
 BRILLOUIN-ZONE-PRIMCELL
           4
 -0.9667038E-01 -0.9667038E-01  0.8495899E-02  -0.1000000E+01  0.0000000E+00  0.0000000E+00
 -0.9667038E-01  0.9667038E-01  0.8495899E-02  -0.1000000E+01  0.0000000E+00  0.0000000E+00
 -0.9667038E-01  0.9667038E-01 -0.8495899E-02  -0.1000000E+01  0.0000000E+00  0.0000000E+00
 -0.9667038E-01 -0.9667038E-01 -0.8495899E-02  -0.1000000E+01  0.0000000E+00  0.0000000E+00
           4
 -0.9667038E-01 -0.9667038E-01 -0.8495899E-02  -0.0000000E+00 -0.1000000E+01 -0.0000000E+00
  0.9667038E-01 -0.9667038E-01 -0.8495899E-02  -0.0000000E+00 -0.1000000E+01 -0.0000000E+00
  0.9667038E-01 -0.9667038E-01  0.8495899E-02  -0.0000000E+00 -0.1000000E+01 -0.0000000E+00
 -0.9667038E-01 -0.9667038E-01  0.8495899E-02  -0.0000000E+00 -0.1000000E+01 -0.0000000E+00
           4
 -0.9667038E-01  0.9667038E-01 -0.8495899E-02  -0.1160175E-16  0.1160175E-16 -0.1000000E+01
  0.9667038E-01  0.9667038E-01 -0.8495899E-02  -0.1160175E-16  0.1160175E-16 -0.1000000E+01
  0.9667038E-01 -0.9667038E-01 -0.8495899E-02  -0.1160175E-16  0.1160175E-16 -0.1000000E+01
 -0.9667038E-01 -0.9667038E-01 -0.8495899E-02  -0.1160175E-16  0.1160175E-16 -0.1000000E+01
           4
 -0.9667038E-01 -0.9667038E-01  0.8495899E-02  -0.1160175E-16  0.1160175E-16  0.1000000E+01
  0.9667038E-01 -0.9667038E-01  0.8495899E-02  -0.1160175E-16  0.1160175E-16  0.1000000E+01
  0.9667038E-01  0.9667038E-01  0.8495899E-02  -0.1160175E-16  0.1160175E-16  0.1000000E+01
 -0.9667038E-01  0.9667038E-01  0.8495899E-02  -0.1160175E-16  0.1160175E-16  0.1000000E+01
           4
 -0.9667038E-01  0.9667038E-01  0.8495899E-02   0.0000000E+00  0.1000000E+01  0.0000000E+00
  0.9667038E-01  0.9667038E-01  0.8495899E-02   0.0000000E+00  0.1000000E+01  0.0000000E+00
  0.9667038E-01  0.9667038E-01 -0.8495899E-02   0.0000000E+00  0.1000000E+01  0.0000000E+00
 -0.9667038E-01  0.9667038E-01 -0.8495899E-02   0.0000000E+00  0.1000000E+01  0.0000000E+00
           4
  0.9667038E-01 -0.9667038E-01 -0.8495899E-02   0.1000000E+01 -0.0000000E+00 -0.0000000E+00
  0.9667038E-01  0.9667038E-01 -0.8495899E-02   0.1000000E+01 -0.0000000E+00 -0.0000000E+00
  0.9667038E-01  0.9667038E-01  0.8495899E-02   0.1000000E+01 -0.0000000E+00 -0.0000000E+00
  0.9667038E-01 -0.9667038E-01  0.8495899E-02   0.1000000E+01 -0.0000000E+00 -0.0000000E+00
 BRILLOUIN-ZONE-PRIMCELL_END
 BRILLOUIN-ZONE-CONVCELL
           4
 -0.9667038E-01 -0.9667038E-01  0.8495899E-02  -0.1000000E+01  0.0000000E+00  0.0000000E+00
 -0.9667038E-01  0.9667038E-01  0.8495899E-02  -0.1000000E+01  0.0000000E+00  0.0000000E+00
 -0.9667038E-01  0.9667038E-01 -0.8495899E-02  -0.1000000E+01  0.0000000E+00  0.0000000E+00
 -0.9667038E-01 -0.9667038E-01 -0.8495899E-02  -0.1000000E+01  0.0000000E+00  0.0000000E+00
           4
 -0.9667038E-01 -0.9667038E-01 -0.8495899E-02  -0.0000000E+00 -0.1000000E+01 -0.0000000E+00
  0.9667038E-01 -0.9667038E-01 -0.8495899E-02  -0.0000000E+00 -0.1000000E+01 -0.0000000E+00
  0.9667038E-01 -0.9667038E-01  0.8495899E-02  -0.0000000E+00 -0.1000000E+01 -0.0000000E+00
 -0.9667038E-01 -0.9667038E-01  0.8495899E-02  -0.0000000E+00 -0.1000000E+01 -0.0000000E+00
           4
 -0.9667038E-01  0.9667038E-01 -0.8495899E-02  -0.1160175E-16  0.1160175E-16 -0.1000000E+01
  0.9667038E-01  0.9667038E-01 -0.8495899E-02  -0.1160175E-16  0.1160175E-16 -0.1000000E+01
  0.9667038E-01 -0.9667038E-01 -0.8495899E-02  -0.1160175E-16  0.1160175E-16 -0.1000000E+01
 -0.9667038E-01 -0.9667038E-01 -0.8495899E-02  -0.1160175E-16  0.1160175E-16 -0.1000000E+01
           4
 -0.9667038E-01 -0.9667038E-01  0.8495899E-02  -0.1160175E-16  0.1160175E-16  0.1000000E+01
  0.9667038E-01 -0.9667038E-01  0.8495899E-02  -0.1160175E-16  0.1160175E-16  0.1000000E+01
  0.9667038E-01  0.9667038E-01  0.8495899E-02  -0.1160175E-16  0.1160175E-16  0.1000000E+01
 -0.9667038E-01  0.9667038E-01  0.8495899E-02  -0.1160175E-16  0.1160175E-16  0.1000000E+01
           4
 -0.9667038E-01  0.9667038E-01  0.8495899E-02   0.0000000E+00  0.1000000E+01  0.0000000E+00
  0.9667038E-01  0.9667038E-01  0.8495899E-02   0.0000000E+00  0.1000000E+01  0.0000000E+00
  0.9667038E-01  0.9667038E-01 -0.8495899E-02   0.0000000E+00  0.1000000E+01  0.0000000E+00
 -0.9667038E-01  0.9667038E-01 -0.8495899E-02   0.0000000E+00  0.1000000E+01  0.0000000E+00
           4
  0.9667038E-01 -0.9667038E-01 -0.8495899E-02   0.1000000E+01 -0.0000000E+00 -0.0000000E+00
  0.9667038E-01  0.9667038E-01 -0.8495899E-02   0.1000000E+01 -0.0000000E+00 -0.0000000E+00
  0.9667038E-01  0.9667038E-01  0.8495899E-02   0.1000000E+01 -0.0000000E+00 -0.0000000E+00
  0.9667038E-01 -0.9667038E-01  0.8495899E-02   0.1000000E+01 -0.0000000E+00 -0.0000000E+00
 BRILLOUIN-ZONE-CONVCELL_END
 ATOMS
   83    0.0000000000    1.2930537770   19.1738576330
   83    0.0000000000    3.8791613310   16.0969410990
   83    2.5861075540    3.8791613310   13.3737459450
   83    2.5861075540    1.2930537770   22.0514903040
   23    0.0000000000    1.2930537770   13.2983286150
   23    0.0000000000    3.8791613310   22.0550949260
   23    2.5861075540    3.8791613310   19.1690969830
   23    2.5861075540    1.2930537770   16.1062730130
    8    0.8304873370    2.6239312340   14.2157080270
    8    4.4406055400    2.5798684920   21.1386240700
    8    1.8439697250    2.5688633420   20.0776274780
    8    3.3514782190    2.6248404470   15.2095319710
    8    1.3362067470    1.9724990580   17.0503277670
    8    3.8524836870    3.1743616290   18.2417354010
    8    1.2764885170    3.1690353760   22.9806892430
    8    4.0139923570    2.0646128320   12.3643469560
    8    3.3282453840    0.0172442120   20.0776274780
    8    0.7316095690    0.0062390630   21.1386240700
    8    3.8957317640    4.5892872870   22.9806892430
    8    1.1582175790    0.5214947230   12.3643469560
    8    3.8360135340    0.6136033240   17.0503277670
    8    1.3197262490    4.5839662050   18.2417354010
   83    0.0000000000    1.2930537770   30.9052969090
   83    0.0000000000    3.8791613310   27.9466293140
   83    2.5861075540    3.8791613310   25.0300692120
   83    2.5861075540    1.2930537770   33.8218570100
   23    0.0000000000    1.2930537770   25.0276800010
   23    0.0000000000    3.8791613310   33.8242462220
   23    2.5861075540    3.8791613310   30.9007414170
   23    2.5861075540    1.2930537770   27.9511848060
    8    0.7292891780    2.5881248270   25.9433734820
    8    4.4429259300    2.5840902820   32.9085527410
    8    1.8579170320    2.5891748740   31.8206273910
    8    3.3142980770    2.5830402340   27.0312988310
    8    1.3049218900    2.0146726530   28.8732966190
    8    3.8672932180    3.1575424550   29.9786296040
    8    1.2805516490    3.1622558120   34.7465586020
    8    3.8916634600    2.0099592970   24.1053676200
    8    3.3142980770    5.1691477880   31.8206273910
    8    1.8579170320    0.0030673200   27.0312988310
    8    0.7292891780    0.0020172730   32.9085527410
    8    3.8916686320    4.5960668510   34.7465586020
    8    1.2805464770    0.5761482580   24.1053676200
    8    3.8672983900    0.5714297280   28.8732966190
    8    1.3049167180    4.6007853800   29.9786296040
   83    0.0000000000    1.2930537770   42.7549851240
   83    0.0000000000    3.8791613310   39.6780685900
   83    2.5861075540    3.8791613310   36.8004359190
   83    2.5861075540    1.2930537770   45.4781802770
   23    0.0000000000    1.2930537770   36.7968312970
   23    0.0000000000    3.8791613310   45.5535976080
   23    2.5861075540    3.8791613310   42.7456532090
   23    2.5861075540    1.2930537770   39.6828292400
    8    0.7316095690    2.5923466160   37.7133021530
    8    4.3417277710    2.5482838740   44.6362181960
    8    1.8207368900    2.5473746610   43.6423942520
    8    3.3282453840    2.6033517660   38.7742987450
    8    1.3197314210    1.9978534790   40.6101908210
    8    3.8360083610    3.1997160500   41.8015984560
    8    1.1582227510    3.1076022770   46.4875792660
    8    3.8957265920    2.0031797330   35.8712369800
    8    3.3514782190    0.0387328940   43.6423942520
    8    0.8304873370    0.0378236800   44.6362181960
    8    4.0139975290    4.6507203860   46.4875792660
    8    1.2764833450    0.5829278210   35.8712369800
    8    3.8524888590    0.5882489030   40.6101908210
    8    1.3362015750    4.5586117850   41.8015984560
    8    1.8207368900    5.1334822150   15.2095319710
    8    4.3417277710    5.1343914280   14.2157080270
    8    4.4429259300    5.1701978360   25.9433734820
    8    1.8439697250    5.1549708960   38.7742987450
    8    4.4406055400    5.1659760460   37.7133021530
   83    5.1722151080    1.2930537770   19.1738576330
   83    5.1722151080    3.8791613310   16.0969410990
   23    5.1722151080    1.2930537770   13.2983286150
   23    5.1722151080    3.8791613310   22.0550949260
   83    5.1722151080    1.2930537770   30.9052969090
   83    5.1722151080    3.8791613310   27.9466293140
   23    5.1722151080    1.2930537770   25.0276800010
   23    5.1722151080    3.8791613310   33.8242462220
   83    5.1722151080    1.2930537770   42.7549851240
   83    5.1722151080    3.8791613310   39.6780685900
   23    5.1722151080    1.2930537770   36.7968312970
   23    5.1722151080    3.8791613310   45.5535976080
 FRAMES
1      0.0000000000    0.0000000000    0.0000000000      5.1722151080    0.0000000000    0.0000000000
1      0.0000000000    0.0000000000    0.0000000000      0.0000000000    5.1722151080    0.0000000000
1      0.0000000000    0.0000000000    0.0000000000      0.0000000000    0.0000000000   58.8519262230
1      0.0000000000    0.0000000000   58.8519262230      5.1722151080    0.0000000000   58.8519262230
1      0.0000000000    0.0000000000   58.8519262230      0.0000000000    5.1722151080   58.8519262230
1      0.0000000000    5.1722151080    0.0000000000      5.1722151080    5.1722151080    0.0000000000
1      0.0000000000    5.1722151080    0.0000000000      0.0000000000    5.1722151080   58.8519262230
1      0.0000000000    5.1722151080   58.8519262230      5.1722151080    5.1722151080   58.8519262230
1      5.1722151080    0.0000000000    0.0000000000      5.1722151080    5.1722151080    0.0000000000
1      5.1722151080    0.0000000000    0.0000000000      5.1722151080    0.0000000000   58.8519262230
1      5.1722151080    0.0000000000   58.8519262230      5.1722151080    5.1722151080   58.8519262230
1      5.1722151080    5.1722151080    0.0000000000      5.1722151080    5.1722151080   58.8519262230
